Version 4
SHEET 1 2144 680
WIRE 480 32 480 0
WIRE 1072 32 1072 0
WIRE 336 128 336 80
WIRE 336 128 224 128
WIRE 480 128 480 112
WIRE 1072 128 1072 112
WIRE 944 144 944 96
WIRE 944 144 832 144
WIRE 176 160 112 160
WIRE 784 176 720 176
WIRE 224 192 224 176
WIRE 544 192 224 192
WIRE 224 208 224 192
WIRE 832 208 832 192
WIRE 992 208 832 208
WIRE 80 224 48 224
WIRE 112 224 112 160
WIRE 112 224 80 224
WIRE 832 224 832 208
WIRE 48 256 48 224
WIRE 304 256 224 256
WIRE 912 272 832 272
WIRE 112 288 112 224
WIRE 176 288 112 288
WIRE 304 304 304 256
WIRE 304 304 224 304
WIRE 720 304 720 176
WIRE 784 304 720 304
WIRE 912 320 912 272
WIRE 912 320 832 320
FLAG 48 336 0
FLAG 304 304 0
FLAG 80 224 IN
FLAG 544 192 OUT
FLAG 480 0 supply
FLAG 1072 128 0
FLAG 912 320 0
FLAG 480 128 0
FLAG 1072 0 supplyL
FLAG 224 80 supply
FLAG 336 80 supply
FLAG 832 96 supplyL
FLAG 944 96 supplyL
SYMBOL pmos4 176 80 R0
WINDOW 123 -43 99 Left 2
SYMATTR Value2 l=l_min_pmos w=w_min_pmos
SYMATTR InstName M1
SYMATTR Value EECMOSP
SYMBOL nmos4 176 208 R0
WINDOW 3 100 30 Left 2
WINDOW 123 60 56 Left 2
SYMATTR Value EECMOSN
SYMATTR Value2 l=l_min_nmos w=w_min_nmos
SYMATTR InstName M2
SYMBOL voltage 480 16 R0
WINDOW 123 0 0 Left 0
WINDOW 39 0 0 Left 0
SYMATTR InstName Vsupply
SYMATTR Value 1
SYMBOL voltage 48 240 R0
WINDOW 3 -202 77 Left 2
WINDOW 123 0 0 Left 0
WINDOW 39 0 0 Left 0
SYMATTR Value PULSE(0 1 5n 10p 10p 5n 10n)
SYMATTR InstName Vin
SYMBOL pmos4 784 96 R0
WINDOW 123 -43 99 Left 2
SYMATTR Value2 l=l_min_pmos w=w_min_pmos
SYMATTR InstName M3
SYMATTR Value EECMOSP
SYMBOL nmos4 784 224 R0
WINDOW 3 100 30 Left 2
WINDOW 123 60 56 Left 2
SYMATTR Value EECMOSN
SYMATTR Value2 l=l_min_nmos w=w_min_nmos
SYMATTR InstName M4
SYMBOL voltage 1072 16 R0
WINDOW 123 0 0 Left 0
WINDOW 39 0 0 Left 0
SYMATTR InstName VsupplyL
SYMATTR Value 1
TEXT -208 -448 Left 2 ;- ### Minimum Inverter\n    - #### energy\n        - energy_connected_minimum_inverter `keep the entire circuit connected and carry out the measurements taking into account v(supply) and i(Vsupply) between 18 ns and 22 ns`\n        - energy_disconnected_minimum_inverter `disconnect the circuit at the OUT connection and carry out the measurements taking into account v(supply) and i(Vsupply) between 18 ns and 22 ns`\n    - #### delay\n        - ##### rise\n            - rise_delay_disconnected_minimum_inverter `disconnect the circuit at the OUT connection and carry out the measurements taking into account v(IN) and v(OUT)`\n            - rise_delay_connected_minimum_inverter `keep the entire circuit connected and carry out the measurements taking into account v(IN) and V(OUT)`\n        - ##### fall\n            - fall_delay_disconnected_minimum_inverter `disconnect the circuit at the OUT connection and carry out the measurements taking into account v(IN) and v(OUT)`\n            - fall_delay_connected_minimum_inverter `keep the entire circuit connected and carry out the measurements taking into account v(IN) and V(OUT)`
